electric-grid/physical/reference/kundur-2area/models/two_area_case.epc
# history file date Thu Oct 27 12:17:29 2011
# present file date Thu Oct 27 12:18:02 2011
# Version 17.0_07 
title
PSS/E PROGRAM APPLICATION GUIDE EXAMPLE                                         
BASE CASE INCLUDING ALL DATA CATEGORIES                                         
!
comments
!
solution parameters
tap    1    tcul  enabled/disabled
phas   1    ps    enabled/disabled
area   0    area  enabled/disabled
svd    1    svd   enabled/disabled
dctap  1    dc    enabled/disabled
gcd    1    gcd   enabled/disabled
jump  0.000290    jumper threshold
toler   0.1000    newton tolerance
sbase 100.0000    system mva base
!
bus data  [10]               ty  vsched   volt     angle    ar zone  vmax   vmin   date_in date_out pid L own st  latitude  longitude island    sdmon   vmax1      vmin1      dvmax
      1 "1           "  20.0000 :  0 1.00000 1.000000  32.67321   1    1 0.0000 0.0000   400101   391231   0 0   1 0    0.00000    0.00000 0    0.00000    0.00000    0.00000
      2 "2           "  20.0000 :  2 1.00000 0.997614  21.12758   1    1 0.0000 0.0000   400101   391231   0 0   1 0    0.00000    0.00000 0    0.00000    0.00000    0.00000
      3 "12          "  20.0000 :  2 1.00000 0.962630  10.61790   2    1 0.0000 0.0000   400101   391231   0 0   1 0    0.00000    0.00000 0    0.00000    0.00000    0.00000
      4 "11          "  20.0000 :  2 1.00000 0.816906  26.49122   2    1 0.0000 0.0000   400101   391231   0 0   1 0    0.00000    0.00000 0    0.00000    0.00000    0.00000
      5 "101         " 230.0000 :  1 1.01301 0.979276  27.51358   1    1 0.0000 0.0000   400101   391231   0 0   1 0    0.00000    0.00000 0    0.00000    0.00000    0.00000
      6 "102         " 230.0000 :  1 0.98632 0.957958  16.26554   1    1 0.0000 0.0000   400101   391231   0 0   1 0    0.00000    0.00000 0    0.00000    0.00000    0.00000
      7 "3           " 230.0000 :  1 0.96797 0.936198   7.27092   1    1 0.0000 0.0000   400101   391231   0 0   1 0    0.00000    0.00000 0    0.00000    0.00000    0.00000
      8 "13          " 230.0000 :  1 0.90740 0.879038  -4.61757   2    1 0.0000 0.0000   400101   391231   0 0   1 0    0.00000    0.00000 0    0.00000    0.00000    0.00000
      9 "112         " 230.0000 :  1 0.83878 0.890537   5.36394   2    1 0.0000 0.0000   400101   391231   0 0   1 0    0.00000    0.00000 0    0.00000    0.00000    0.00000
     10 "111         " 230.0000 :  1 0.83979 0.829575  19.28578   2    1 0.0000 0.0000   400101   391231   0 0   1 0    0.00000    0.00000 0    0.00000    0.00000    0.00000
branch data  [   11]                                          ck  se  ------------long_id_------------    st resist   react   charge   rate1  rate2  rate3  rate4 aloss  lngth 
      5 "101         " 230.00       6 "102         " 230.00  "1 "  1 "                                " :  1  0.005000  0.050000  0.075000    0.0    0.0    0.0    0.0 0.000    0.0 /
   1    1  0.000000  0.000000  0.000000   400101   391231   0 1  0    0.0    0.0    0.0    0.0   1 1.000   0 0.000   0 0.000   0 0.000   0 0.000   0 0.000   0 0.000   0 0.000  0 0 
      5 "101         " 230.00       6 "102         " 230.00  "2 "  1 "                                " :  1  0.005010  0.050010  0.075000    0.0    0.0    0.0    0.0 0.000    1.0 /
   1    1  0.000000  0.000000  1.000000   400101   391231   0 1  0    0.0    0.0    0.0    0.0   1 1.000   0 0.000   0 0.000   0 0.000   0 0.000   0 0.000   0 0.000   0 0.000  0 0 
      6 "102         " 230.00       7 "3           " 230.00  "1 "  1 "                                " :  1  0.002000  0.020000  0.030000    0.0    0.0    0.0    0.0 0.000    0.0 /
   1    1  0.000000  0.000000  0.000000   400101   391231   0 1  0    0.0    0.0    0.0    0.0   1 1.000   0 0.000   0 0.000   0 0.000   0 0.000   0 0.000   0 0.000   0 0.000  0 0 
      6 "102         " 230.00       7 "3           " 230.00  "2 "  1 "                                " :  1  0.002010  0.020010  0.030000    0.0    0.0    0.0    0.0 0.000    1.0 /
   1    1  0.000000  0.000000  1.000000   400101   391231   0 1  0    0.0    0.0    0.0    0.0   1 1.000   0 0.000   0 0.000   0 0.000   0 0.000   0 0.000   0 0.000   0 0.000  0 0 
      7 "3           " 230.00       8 "13          " 230.00  "1 "  1 "                                " :  1  0.022010  0.220010  0.330000    0.0    0.0    0.0    0.0 0.000    0.0 /
   1    1  0.000000  0.000000  0.000000   400101   391231   0 1  0    0.0    0.0    0.0    0.0   1 1.000   0 0.000   0 0.000   0 0.000   0 0.000   0 0.000   0 0.000   0 0.000  0 0 
      7 "3           " 230.00       8 "13          " 230.00  "2 "  1 "                                " :  1  0.022020  0.220020  0.330000    0.0    0.0    0.0    0.0 0.000    0.0 /
   1    1  0.000000  0.000000  0.000000   400101   391231   0 1  0    0.0    0.0    0.0    0.0   1 1.000   0 0.000   0 0.000   0 0.000   0 0.000   0 0.000   0 0.000   0 0.000  0 0 
      7 "3           " 230.00       8 "13          " 230.00  "3 "  1 "                                " :  1  0.022000  0.220000  0.330000    0.0    0.0    0.0    0.0 0.000    1.0 /
   2    1  0.000000  0.000000  1.000000   400101   391231   0 1  0    0.0    0.0    0.0    0.0   1 1.000   0 0.000   0 0.000   0 0.000   0 0.000   0 0.000   0 0.000   0 0.000  0 0 
      8 "13          " 230.00       9 "112         " 230.00  "1 "  1 "                                " :  1  0.002000  0.020000  0.030000    0.0    0.0    0.0    0.0 0.000    0.0 /
   2    1  0.000000  0.000000  0.000000   400101   391231   0 1  0    0.0    0.0    0.0    0.0   1 1.000   0 0.000   0 0.000   0 0.000   0 0.000   0 0.000   0 0.000   0 0.000  0 0 
      8 "13          " 230.00       9 "112         " 230.00  "2 "  1 "                                " :  1  0.002010  0.020010  0.030000    0.0    0.0    0.0    0.0 0.000    0.0 /
   2    1  0.000000  0.000000  0.000000   400101   391231   0 1  0    0.0    0.0    0.0    0.0   1 1.000   0 0.000   0 0.000   0 0.000   0 0.000   0 0.000   0 0.000   0 0.000  0 0 
      9 "112         " 230.00      10 "111         " 230.00  "1 "  1 "                                " :  1  0.005000  0.050000  0.075000    0.0    0.0    0.0    0.0 0.000    0.0 /
   2    1  0.000000  0.000000  0.000000   400101   391231   0 1  0    0.0    0.0    0.0    0.0   1 1.000   0 0.000   0 0.000   0 0.000   0 0.000   0 0.000   0 0.000   0 0.000  0 0 
      9 "112         " 230.00      10 "111         " 230.00  "2 "  1 "                                " :  1  0.005010  0.050010  0.075000    0.0    0.0    0.0    0.0 0.000    1.0 /
   2    1  0.000000  0.000000  1.000000   400101   391231   0 1  0    0.0    0.0    0.0    0.0   1 1.000   0 0.000   0 0.000   0 0.000   0 0.000   0 0.000   0 0.000   0 0.000  0 0 
transformer data  [   4]                                     ck   ------------long_id_------------     st ty --no---    reg_name          zt         int                              tert                   ar zone  tbase   ps_r    ps_x    pt_r    pt_x    ts_r    ts_x
      1 "1           "  20.00       5 "101         " 230.00  "1 " "T1                              " :  1  1       0 "            "   0.00  0       0 "            "   0.00       0 "            "   0.00    1    1 900.000000 9.000000E-003 1.080000E-001 0.000000E+000 0.000000E+000 0.000000E+000 0.000000E+000 /
 20.000000 230.000000  0.000000  0.000000 0.000000E+000 0.000000E+000    0.0    0.0    0.0    0.0 0.000  1.100000  0.900000  1.100000  0.900000 -0.006250  1.000000  1.000000  1.000000  1.000000   400101   391231   0 1     0.0    0.0    0.0    0.0 /
   1 1.000   0 0.000   0 0.000   0 0.000   0 0.000   0 0.000   0 0.000   0 0.000  0 /
   0.000000   0.000000  0.000000  0.000000     0.0    0.0    0.0     0.0    0.0    0.0 0.000 0.000  0  0  0 0.0000 0.0000 0 
      2 "2           "  20.00       6 "102         " 230.00  "1 " "T2                              " :  1  1       0 "            "   0.00  0       0 "            "   0.00       0 "            "   0.00    1    1 900.000000 9.000000E-003 1.080000E-001 0.000000E+000 0.000000E+000 0.000000E+000 0.000000E+000 /
 20.000000 230.000000  0.000000  0.000000 0.000000E+000 0.000000E+000    0.0    0.0    0.0    0.0 0.000  1.100000  0.900000  1.100000  0.900000 -0.006250  1.000000  1.000000  1.000000  1.000000   400101   391231   0 1     0.0    0.0    0.0    0.0 /
   1 1.000   0 0.000   0 0.000   0 0.000   0 0.000   0 0.000   0 0.000   0 0.000  0 /
   0.000000   0.000000  0.000000  0.000000     0.0    0.0    0.0     0.0    0.0    0.0 0.000 0.000  0  0  0 0.0000 0.0000 0 
      3 "12          "  20.00       9 "112         " 230.00  "1 " "T3                              " :  1  1       0 "            "   0.00  0       0 "            "   0.00       0 "            "   0.00    2    1 900.000000 9.000000E-003 1.080000E-001 0.000000E+000 0.000000E+000 0.000000E+000 0.000000E+000 /
 20.000000 230.000000  0.000000  0.000000 0.000000E+000 0.000000E+000    0.0    0.0    0.0    0.0 0.000  1.100000  0.900000  1.100000  0.900000 -0.006250  1.000000  1.000000  1.000000  1.000000   400101   391231   0 1     0.0    0.0    0.0    0.0 /
   1 1.000   0 0.000   0 0.000   0 0.000   0 0.000   0 0.000   0 0.000   0 0.000  0 /
   0.000000   0.000000  0.000000  0.000000     0.0    0.0    0.0     0.0    0.0    0.0 0.000 0.000  0  0  0 0.0000 0.0000 0 
      4 "11          "  20.00      10 "111         " 230.00  "1 " "T4                              " :  1  1       0 "            "   0.00  0       0 "            "   0.00       0 "            "   0.00    2    1 900.000000 9.000000E-003 1.080000E-001 0.000000E+000 0.000000E+000 0.000000E+000 0.000000E+000 /
 20.000000 230.000000  0.000000  0.000000 0.000000E+000 0.000000E+000    0.0    0.0    0.0    0.0 0.000  1.100000  0.900000  1.100000  0.900000 -0.006250  1.000000  1.000000  1.000000  1.000000   400101   391231   0 1     0.0    0.0    0.0    0.0 /
   1 1.000   0 0.000   0 0.000   0 0.000   0 0.000   0 0.000   0 0.000   0 0.000  0 /
   0.000000   0.000000  0.000000  0.000000     0.0    0.0    0.0     0.0    0.0    0.0 0.000 0.000  0  0  0 0.0000 0.0000 0 
generator data  [   4]         id   ------------long_id_------------    st ---no--     reg_name           prf  qrf  ar zone   pgen   pmax   pmin   qgen   qmax   qmin   mbase  cmp_r cmp_x gen_r gen_x           hbus                         tbus                date_in date_out pid N
      1 "1           "  20.00 "1 " "                                " :  1       1 "1           "  20.00  1.000000  1.000000   1    1 745.861197 900.000000   0.000000 143.612027 600.000000  0.000000 900.0000 0.000 0.000 0.000 0.250       0 "            "   0.00       0 "            "   0.00    400101   391231   0 1 /
 0.0000 0.0000 1.0000   1 1.000   0 0.000   0 0.000   0 0.000   0 0.000   0 0.000   0 0.000   0 0.000    0   0   0   0   0   0   0    0.0 0 0  1.000000
      2 "2           "  20.00 "1 " "                                " :  1       2 "2           "  20.00  1.000000  1.000000   1    1 700.000000 900.000000   0.000000 300.000000 300.000000 300.000000 900.0000 0.000 0.000 0.000 0.250       0 "            "   0.00       0 "            "   0.00    400101   391231   0 1 /
 0.0000 0.0000 1.0000   1 1.000   0 0.000   0 0.000   0 0.000   0 0.000   0 0.000   0 0.000   0 0.000    0   0   0   0   0   0   0    0.0 0 1  1.000000
      3 "12          "  20.00 "1 " "                                " :  1       3 "12          "  20.00  1.000000  1.000000   2    1 700.000000 900.000000   0.000000 550.000000 550.000000 550.000000 900.0000 0.000 0.000 0.000 0.250       0 "            "   0.00       0 "            "   0.00    400101   391231   0 1 /
 0.0000 0.0000 1.0000   1 1.000   0 0.000   0 0.000   0 0.000   0 0.000   0 0.000   0 0.000   0 0.000    0   0   0   0   0   0   0    0.0 0 1  1.000000
      4 "11          "  20.00 "1 " "                                " :  1       4 "11          "  20.00  1.000000  1.000000   2    1 700.000000 2000.000000   0.000000 -100.000000 -100.000000 -100.000000 900.0000 0.000 0.000 0.000 0.250       0 "            "   0.00       0 "            "   0.00    400101   391231   0 1 /
 0.0000 0.0000 1.0000   1 1.000   0 0.000   0 0.000   0 0.000   0 0.000   0 0.000   0 0.000   0 0.000    0   0   0   0   0   0   0    0.0 0 1  1.000000
load data  [   2]             id   ------------long_id_------------     st      mw      mvar    mw_i    mvar_i  mw_z      mvar_z  ar zone  date_in date_out pid N own M nonc  thr_bus flg
      7 "3           " 230.00 "2 " "                                "  :  1 1159.000015 -73.500001 0.000000 0.000000 0.000000 0.000000   1    1   400101   391231   0 0   1 0    0       0 "            "   0.00   0
      8 "13          " 230.00 "1 " "                                "  :  1 1575.000000 -89.899999 0.000000 0.000000 0.000000 0.000000   1    1   400101   391231   0 1   1 0    0       0 "            "   0.00   0
shunt data  [   0]             id                                 ck  se  ------------long_id_------------     st ar  zone    pu_mw  pu_mvar  date_in date_out pid N own part1 own part2 own part3 own part4 --num-- ----name----  --kv-- M --num--  ----name----  --kv--  ID  st
svd data  [   0]               id   ------------long_id_------------    st ty --no---     reg_name           ar zone      g      b  min_c  max_c  vband   bmin   bmax  date_in date_out pid N own part1 own part2 own part3 own part4 M st
area data  [  2]                            swing  desired    tol      pnet     qnet
    1 "AREA1                           "       1 -400.000   10.000 -1336.496  119.706 0
    2 "AREA2                           "       3  400.000   10.000 1336.492 -119.724 0
zone data  [   1]                            pnet     qnet
    1 "ZONE_1                          "   -0.003   -0.018 0
interface data  [   0]                      pnet     qnet   -rate1- -rate2- -rate3- -rate4- -rate5- -rate6- -rate7- -rate8-
interface branch data  [    0]                              ck      -i_no-  part_fac  
dc bus data  [ 0]             ty ar  zone   vsched     dc_volt  date_in date_out pid own
dc converter data  [ 0]                               id   long_id_    st ty md nb fg  --no---           reg   ar zone  date_in date_out
z table data  [ 0]  -tap2 fact2 -tap3 fact3 -tap4 fact4 -tap5 fact5 -tap6 fact6 -tap7 fact7 -tap8 fact8 -tap9 fact9 tap10 fac10 tap11 fac11
gcd data  [   0]
transaction data  [    0]              st    sch_mw   sch_mvar  flag stn pid         transaction name
owner data  [    1]    owner name           s name       net_mw   net_mvar     sch_mw   sch_mvar  ar
       1 "OWNER_1                         " "O1  " :     0.000      0.000      0.000      0.000   0 0 


qtable data     [   0]   id     p[0]   qmx[0]  qmn[0]  ....
end
